data_image0
_chemical_formula_structural       U4O8U4O8U4O8U4O8U4O8U4O8U4O8U4O7
_chemical_formula_sum              "U32 O63"
_cell_length_a       10.942
_cell_length_b       10.942
_cell_length_c       10.942
_cell_angle_alpha    90
_cell_angle_beta     90
_cell_angle_gamma    90

_space_group_name_H-M_alt    "P 1"
_space_group_IT_number       1

loop_
  _space_group_symop_operation_xyz
  'x, y, z'

loop_
  _atom_site_type_symbol
  _atom_site_label
  _atom_site_symmetry_multiplicity
  _atom_site_fract_x
  _atom_site_fract_y
  _atom_site_fract_z
  _atom_site_occupancy
  U   U1        1.0  0.99422  0.99891  0.99604  1.0000
  U   U2        1.0  0.25105  0.25096  0.99415  1.0000
  U   U3        1.0  0.24622  0.99571  0.24737  1.0000
  U   U4        1.0  0.00215  0.25138  0.24140  1.0000
  O   O1        1.0  0.12701  0.12690  0.11485  1.0000
  O   O2        1.0  0.37893  0.12191  0.12626  1.0000
  O   O3        1.0  0.12757  0.37218  0.11802  1.0000
  O   O4        1.0  0.12232  0.12860  0.36914  1.0000
  O   O5        1.0  0.37183  0.37733  0.12388  1.0000
  O   O6        1.0  0.37259  0.12198  0.37644  1.0000
  O   O7        1.0  0.12626  0.38074  0.37048  1.0000
  O   O8        1.0  0.37494  0.37336  0.37314  1.0000
  U   U5        1.0  0.99651  0.00111  0.49136  1.0000
  U   U6        1.0  0.25200  0.25178  0.49499  1.0000
  U   U7        1.0  0.24905  0.99993  0.73915  1.0000
  U   U8        1.0  0.00424  0.24925  0.74114  1.0000
  O   O9        1.0  0.12634  0.12846  0.61711  1.0000
  O   O10       1.0  0.37666  0.12248  0.62600  1.0000
  O   O11       1.0  0.12729  0.37543  0.61568  1.0000
  O   O12       1.0  0.11790  0.12465  0.86817  1.0000
  O   O13       1.0  0.37558  0.38016  0.61824  1.0000
  O   O14       1.0  0.37491  0.12697  0.87435  1.0000
  O   O15       1.0  0.12981  0.37343  0.86821  1.0000
  O   O16       1.0  0.38188  0.37532  0.87101  1.0000
  U   U9        1.0  0.99562  0.49878  0.99460  1.0000
  U   U10       1.0  0.24665  0.74786  0.99892  1.0000
  U   U11       1.0  0.25250  0.50185  0.24324  1.0000
  U   U12       1.0  0.00026  0.74844  0.25049  1.0000
  O   O17       1.0  0.12405  0.62676  0.11764  1.0000
  O   O18       1.0  0.37168  0.62321  0.12504  1.0000
  O   O19       1.0  0.11869  0.87621  0.12339  1.0000
  O   O20       1.0  0.11920  0.62031  0.36651  1.0000
  O   O21       1.0  0.37252  0.87564  0.12799  1.0000
  O   O22       1.0  0.37117  0.61953  0.37716  1.0000
  O   O23       1.0  0.11965  0.87800  0.37143  1.0000
  O   O24       1.0  0.36977  0.86948  0.38000  1.0000
  U   U13       1.0  0.00459  0.49646  0.49320  1.0000
  U   U14       1.0  0.25398  0.74763  0.50328  1.0000
  U   U15       1.0  0.25396  0.50212  0.74088  1.0000
  U   U16       1.0  0.00459  0.75330  0.74180  1.0000
  O   O25       1.0  0.12766  0.62260  0.62027  1.0000
  O   O26       1.0  0.38138  0.62509  0.62778  1.0000
  O   O27       1.0  0.12556  0.87155  0.61767  1.0000
  O   O28       1.0  0.12455  0.62918  0.87033  1.0000
  O   O29       1.0  0.37415  0.87637  0.62630  1.0000
  O   O30       1.0  0.37144  0.62836  0.87507  1.0000
  O   O31       1.0  0.12065  0.87918  0.86524  1.0000
  O   O32       1.0  0.37923  0.87154  0.87978  1.0000
  U   U17       1.0  0.49364  0.00513  0.00518  1.0000
  U   U18       1.0  0.74736  0.24966  0.00088  1.0000
  U   U19       1.0  0.74180  0.99449  0.25177  1.0000
  U   U20       1.0  0.50286  0.24924  0.25334  1.0000
  O   O33       1.0  0.62861  0.12362  0.13096  1.0000
  O   O34       1.0  0.87530  0.12727  0.12881  1.0000
  O   O35       1.0  0.62168  0.36790  0.12446  1.0000
  O   O36       1.0  0.62431  0.12244  0.38102  1.0000
  O   O37       1.0  0.88027  0.38094  0.12226  1.0000
  O   O38       1.0  0.86974  0.11880  0.38311  1.0000
  O   O39       1.0  0.62451  0.37059  0.38421  1.0000
  O   O40       1.0  0.87936  0.37278  0.36785  1.0000
  U   U21       1.0  0.49437  0.00093  0.50509  1.0000
  U   U22       1.0  0.74658  0.24899  0.50001  1.0000
  U   U23       1.0  0.74096  0.99876  0.75351  1.0000
  U   U24       1.0  0.50607  0.24877  0.75163  1.0000
  O   O41       1.0  0.62274  0.12154  0.62530  1.0000
  O   O42       1.0  0.87593  0.13335  0.62192  1.0000
  O   O43       1.0  0.62706  0.36751  0.62987  1.0000
  O   O44       1.0  0.62382  0.12526  0.87453  1.0000
  O   O45       1.0  0.87928  0.38393  0.62101  1.0000
  O   O46       1.0  0.86885  0.12544  0.87547  1.0000
  O   O47       1.0  0.62657  0.37965  0.87898  1.0000
  O   O48       1.0  0.88004  0.37024  0.87069  1.0000
  U   U25       1.0  0.49939  0.49766  0.00412  1.0000
  U   U26       1.0  0.74720  0.75333  0.00687  1.0000
  U   U27       1.0  0.75313  0.50011  0.25230  1.0000
  U   U28       1.0  0.49279  0.75183  0.25831  1.0000
  O   O49       1.0  0.62092  0.62019  0.13024  1.0000
  O   O50       1.0  0.87200  0.63192  0.12664  1.0000
  O   O51       1.0  0.61243  0.87177  0.12647  1.0000
  O   O52       1.0  0.62490  0.62327  0.37689  1.0000
  O   O53       1.0  0.86937  0.87626  0.12792  1.0000
  O   O54       1.0  0.87721  0.61985  0.37685  1.0000
  O   O55       1.0  0.62171  0.87338  0.38354  1.0000
  O   O56       1.0  0.87049  0.87131  0.37353  1.0000
  U   U29       1.0  0.50138  0.50174  0.49844  1.0000
  U   U30       1.0  0.74543  0.74791  0.50255  1.0000
  U   U31       1.0  0.75125  0.50489  0.75481  1.0000
  U   U32       1.0  0.49595  0.74688  0.75503  1.0000
  O   O57       1.0  0.62392  0.62071  0.62455  1.0000
  O   O58       1.0  0.86770  0.63692  0.62485  1.0000
  O   O59       1.0  0.62002  0.87399  0.62861  1.0000
  O   O60       1.0  0.63112  0.63089  0.88074  1.0000
  O   O61       1.0  0.87414  0.88713  0.62888  1.0000
  O   O62       1.0  0.87540  0.61884  0.87662  1.0000
  O   O63       1.0  0.62243  0.87984  0.87634  1.0000
